data/cases/case57.m
function mpc = case57
% MATPOWER case format for case57

mpc.version = '2';
mpc.baseMVA = 100.0;

% bus data
% bus_i type Pd Qd Gs Bs area Vm Va baseKV zone Vmax Vmin
mpc.bus = [
	1	3	55.0000	17.0000	0.0000	0.0000	1	1.0400	0.0000	115.0	1	2.0000	0.0000;
	2	2	3.0000	88.0000	0.0000	0.0000	1	1.0100	0.0000	115.0	1	2.0000	0.0000;
	3	2	41.0000	21.0000	0.0000	0.0000	1	0.9850	0.0000	115.0	1	2.0000	0.0000;
	4	1	0.0000	0.0000	0.0000	0.0000	1	1.0000	0.0000	115.0	1	2.0000	0.0000;
	5	1	13.0000	4.0000	0.0000	0.0000	1	1.0000	0.0000	115.0	1	2.0000	0.0000;
	6	2	75.0000	2.0000	0.0000	0.0000	1	0.9800	0.0000	115.0	1	2.0000	0.0000;
	7	1	0.0000	0.0000	0.0000	0.0000	1	1.0000	0.0000	115.0	1	2.0000	0.0000;
	8	2	150.0000	22.0000	0.0000	0.0000	1	1.0050	0.0000	115.0	1	2.0000	0.0000;
	9	2	121.0000	26.0000	0.0000	0.0000	1	0.9800	0.0000	115.0	1	2.0000	0.0000;
	10	1	5.0000	2.0000	0.0000	0.0000	1	1.0000	0.0000	115.0	1	2.0000	0.0000;
	11	1	0.0000	0.0000	0.0000	0.0000	1	1.0000	0.0000	115.0	1	2.0000	0.0000;
	12	2	377.0000	24.0000	0.0000	0.0000	1	1.0150	0.0000	115.0	1	2.0000	0.0000;
	13	1	18.0000	2.3000	0.0000	0.0000	1	1.0000	0.0000	115.0	1	2.0000	0.0000;
	14	1	10.5000	5.3000	0.0000	0.0000	1	1.0000	0.0000	115.0	1	2.0000	0.0000;
	15	1	22.0000	5.0000	0.0000	0.0000	1	1.0000	0.0000	115.0	1	2.0000	0.0000;
	16	1	43.0000	3.0000	0.0000	0.0000	1	1.0000	0.0000	115.0	1	2.0000	0.0000;
	17	1	42.0000	8.0000	0.0000	0.0000	1	1.0000	0.0000	115.0	1	2.0000	0.0000;
	18	1	27.2000	9.8000	0.0000	10.0000	1	1.0000	0.0000	500.0	1	2.0000	0.0000;
	19	1	3.3000	0.6000	0.0000	0.0000	1	1.0000	0.0000	500.0	1	2.0000	0.0000;
	20	1	2.3000	1.0000	0.0000	0.0000	1	1.0000	0.0000	500.0	1	2.0000	0.0000;
	21	1	0.0000	0.0000	0.0000	0.0000	1	1.0000	0.0000	138.0	1	2.0000	0.0000;
	22	1	0.0000	0.0000	0.0000	0.0000	1	1.0000	0.0000	138.0	1	2.0000	0.0000;
	23	1	6.3000	2.1000	0.0000	0.0000	1	1.0000	0.0000	138.0	1	2.0000	0.0000;
	24	1	0.0000	0.0000	0.0000	0.0000	1	1.0000	0.0000	138.0	1	2.0000	0.0000;
	25	1	6.3000	3.2000	0.0000	5.9000	1	1.0000	0.0000	345.0	1	2.0000	0.0000;
	26	1	0.0000	0.0000	0.0000	0.0000	1	1.0000	0.0000	161.0	1	2.0000	0.0000;
	27	1	9.3000	0.5000	0.0000	0.0000	1	1.0000	0.0000	161.0	1	2.0000	0.0000;
	28	1	4.6000	2.3000	0.0000	0.0000	1	1.0000	0.0000	161.0	1	2.0000	0.0000;
	29	1	17.0000	2.6000	0.0000	0.0000	1	1.0000	0.0000	161.0	1	2.0000	0.0000;
	30	1	3.6000	1.8000	0.0000	0.0000	1	1.0000	0.0000	345.0	1	2.0000	0.0000;
	31	1	5.8000	2.9000	0.0000	0.0000	1	1.0000	0.0000	345.0	1	2.0000	0.0000;
	32	1	1.6000	0.8000	0.0000	0.0000	1	1.0000	0.0000	345.0	1	2.0000	0.0000;
	33	1	3.8000	1.9000	0.0000	0.0000	1	1.0000	0.0000	345.0	1	2.0000	0.0000;
	34	1	0.0000	0.0000	0.0000	0.0000	1	1.0000	0.0000	138.0	1	2.0000	0.0000;
	35	1	6.0000	3.0000	0.0000	0.0000	1	1.0000	0.0000	138.0	1	2.0000	0.0000;
	36	1	0.0000	0.0000	0.0000	0.0000	1	1.0000	0.0000	138.0	1	2.0000	0.0000;
	37	1	0.0000	0.0000	0.0000	0.0000	1	1.0000	0.0000	138.0	1	2.0000	0.0000;
	38	1	14.0000	7.0000	0.0000	0.0000	1	1.0000	0.0000	138.0	1	2.0000	0.0000;
	39	1	0.0000	0.0000	0.0000	0.0000	1	1.0000	0.0000	138.0	1	2.0000	0.0000;
	40	1	0.0000	0.0000	0.0000	0.0000	1	1.0000	0.0000	138.0	1	2.0000	0.0000;
	41	1	6.3000	3.0000	0.0000	0.0000	1	1.0000	0.0000	230.0	1	2.0000	0.0000;
	42	1	7.1000	4.4000	0.0000	0.0000	1	1.0000	0.0000	230.0	1	2.0000	0.0000;
	43	1	2.0000	1.0000	0.0000	0.0000	1	1.0000	0.0000	230.0	1	2.0000	0.0000;
	44	1	12.0000	1.8000	0.0000	0.0000	1	1.0000	0.0000	138.0	1	2.0000	0.0000;
	45	1	0.0000	0.0000	0.0000	0.0000	1	1.0000	0.0000	138.0	1	2.0000	0.0000;
	46	1	0.0000	0.0000	0.0000	0.0000	1	1.0000	0.0000	138.0	1	2.0000	0.0000;
	47	1	29.7000	11.6000	0.0000	0.0000	1	1.0000	0.0000	138.0	1	2.0000	0.0000;
	48	1	0.0000	0.0000	0.0000	0.0000	1	1.0000	0.0000	138.0	1	2.0000	0.0000;
	49	1	18.0000	8.5000	0.0000	0.0000	1	1.0000	0.0000	138.0	1	2.0000	0.0000;
	50	1	21.0000	10.5000	0.0000	0.0000	1	1.0000	0.0000	138.0	1	2.0000	0.0000;
	51	1	18.0000	5.3000	0.0000	0.0000	1	1.0000	0.0000	138.0	1	2.0000	0.0000;
	52	1	4.9000	2.2000	0.0000	0.0000	1	1.0000	0.0000	161.0	1	2.0000	0.0000;
	53	1	20.0000	10.0000	0.0000	6.3000	1	1.0000	0.0000	161.0	1	2.0000	0.0000;
	54	1	4.1000	1.4000	0.0000	0.0000	1	1.0000	0.0000	161.0	1	2.0000	0.0000;
	55	1	6.8000	3.4000	0.0000	0.0000	1	1.0000	0.0000	161.0	1	2.0000	0.0000;
	56	1	7.6000	2.2000	0.0000	0.0000	1	1.0000	0.0000	230.0	1	2.0000	0.0000;
	57	1	6.7000	2.0000	0.0000	0.0000	1	1.0000	0.0000	230.0	1	2.0000	0.0000;
];

% generator data
% bus Pg Qg Qmax Qmin Vg mBase status Pmax Pmin
mpc.gen = [
	1	481.0902	130.2360	0.0000	0.0000	1.0400	100.0	1	1000000000.0000	-1000000000.0000;
	2	0.0000	-0.6865	50.0000	-17.0000	1.0100	100.0	1	100.0000	0.0000;
	3	40.0000	4.1189	60.0000	-10.0000	0.9850	100.0	1	140.0000	0.0000;
	6	0.0000	5.7918	25.0000	-8.0000	0.9800	100.0	1	100.0000	0.0000;
	8	450.0000	67.6301	200.0000	-140.0000	1.0050	100.0	1	550.0000	0.0000;
	9	0.0000	0.9452	9.0000	-3.0000	0.9800	100.0	1	100.0000	0.0000;
	12	310.0000	125.6022	155.0000	-150.0000	1.0150	100.0	1	410.0000	0.0000;
];

% branch data
% fbus tbus r x b rateA rateB rateC ratio angle status angmin angmax
mpc.branch = [
	1	2	0.008300	0.028000	0.129000	9900.0	0.0	0.0	1.0000	0.0000	1	-360.0	360.0;
	2	3	0.029800	0.085000	0.081800	9900.0	0.0	0.0	1.0000	0.0000	1	-360.0	360.0;
	3	4	0.011200	0.036600	0.038000	9900.0	0.0	0.0	1.0000	0.0000	1	-360.0	360.0;
	4	5	0.062500	0.132000	0.025800	9900.0	0.0	0.0	1.0000	0.0000	1	-360.0	360.0;
	4	6	0.043000	0.148000	0.034800	9900.0	0.0	0.0	1.0000	0.0000	1	-360.0	360.0;
	6	7	0.020000	0.102000	0.027600	9900.0	0.0	0.0	1.0000	0.0000	1	-360.0	360.0;
	6	8	0.033900	0.173000	0.047000	9900.0	0.0	0.0	1.0000	0.0000	1	-360.0	360.0;
	8	9	0.009900	0.050500	0.054800	9900.0	0.0	0.0	1.0000	0.0000	1	-360.0	360.0;
	9	10	0.036900	0.167900	0.044000	9900.0	0.0	0.0	1.0000	0.0000	1	-360.0	360.0;
	9	11	0.025800	0.084800	0.021800	9900.0	0.0	0.0	1.0000	0.0000	1	-360.0	360.0;
	9	12	0.064800	0.295000	0.077200	9900.0	0.0	0.0	1.0000	0.0000	1	-360.0	360.0;
	9	13	0.048100	0.158000	0.040600	9900.0	0.0	0.0	1.0000	0.0000	1	-360.0	360.0;
	13	14	0.013200	0.043400	0.011000	9900.0	0.0	0.0	1.0000	0.0000	1	-360.0	360.0;
	13	15	0.026900	0.086900	0.023000	9900.0	0.0	0.0	1.0000	0.0000	1	-360.0	360.0;
	1	15	0.017800	0.091000	0.098800	9900.0	0.0	0.0	1.0000	0.0000	1	-360.0	360.0;
	1	16	0.045400	0.206000	0.054600	9900.0	0.0	0.0	1.0000	0.0000	1	-360.0	360.0;
	1	17	0.023800	0.108000	0.028600	9900.0	0.0	0.0	1.0000	0.0000	1	-360.0	360.0;
	3	15	0.016200	0.053000	0.054400	9900.0	0.0	0.0	1.0000	0.0000	1	-360.0	360.0;
	5	6	0.030200	0.064100	0.012400	9900.0	0.0	0.0	1.0000	0.0000	1	-360.0	360.0;
	7	8	0.013900	0.071200	0.019400	9900.0	0.0	0.0	1.0000	0.0000	1	-360.0	360.0;
	10	12	0.027700	0.126200	0.032800	9900.0	0.0	0.0	1.0000	0.0000	1	-360.0	360.0;
	11	13	0.022300	0.073200	0.018800	9900.0	0.0	0.0	1.0000	0.0000	1	-360.0	360.0;
	12	13	0.017800	0.058000	0.060400	9900.0	0.0	0.0	1.0000	0.0000	1	-360.0	360.0;
	12	16	0.018000	0.081300	0.021600	9900.0	0.0	0.0	1.0000	0.0000	1	-360.0	360.0;
	12	17	0.039700	0.179000	0.047600	9900.0	0.0	0.0	1.0000	0.0000	1	-360.0	360.0;
	14	15	0.017100	0.054700	0.014800	9900.0	0.0	0.0	1.0000	0.0000	1	-360.0	360.0;
	18	19	0.461000	0.685000	0.000000	9900.0	0.0	0.0	1.0000	0.0000	1	-360.0	360.0;
	19	20	0.283000	0.434000	0.000000	9900.0	0.0	0.0	1.0000	0.0000	1	-360.0	360.0;
	21	22	0.073600	0.117000	0.000000	9900.0	0.0	0.0	1.0000	0.0000	1	-360.0	360.0;
	22	23	0.009900	0.015200	0.000000	9900.0	0.0	0.0	1.0000	0.0000	1	-360.0	360.0;
	23	24	0.166000	0.256000	0.008400	9900.0	0.0	0.0	1.0000	0.0000	1	-360.0	360.0;
	26	27	0.165000	0.254000	0.000000	9900.0	0.0	0.0	1.0000	0.0000	1	-360.0	360.0;
	27	28	0.061800	0.095400	0.000000	9900.0	0.0	0.0	1.0000	0.0000	1	-360.0	360.0;
	28	29	0.041800	0.058700	0.000000	9900.0	0.0	0.0	1.0000	0.0000	1	-360.0	360.0;
	25	30	0.135000	0.202000	0.000000	9900.0	0.0	0.0	1.0000	0.0000	1	-360.0	360.0;
	30	31	0.326000	0.497000	0.000000	9900.0	0.0	0.0	1.0000	0.0000	1	-360.0	360.0;
	31	32	0.507000	0.755000	0.000000	9900.0	0.0	0.0	1.0000	0.0000	1	-360.0	360.0;
	32	33	0.039200	0.036000	0.000000	9900.0	0.0	0.0	1.0000	0.0000	1	-360.0	360.0;
	34	35	0.052000	0.078000	0.003200	9900.0	0.0	0.0	1.0000	0.0000	1	-360.0	360.0;
	35	36	0.043000	0.053700	0.001600	9900.0	0.0	0.0	1.0000	0.0000	1	-360.0	360.0;
	36	37	0.029000	0.036600	0.000000	9900.0	0.0	0.0	1.0000	0.0000	1	-360.0	360.0;
	37	38	0.065100	0.100900	0.002000	9900.0	0.0	0.0	1.0000	0.0000	1	-360.0	360.0;
	37	39	0.023900	0.037900	0.000000	9900.0	0.0	0.0	1.0000	0.0000	1	-360.0	360.0;
	36	40	0.030000	0.046600	0.000000	9900.0	0.0	0.0	1.0000	0.0000	1	-360.0	360.0;
	22	38	0.019200	0.029500	0.000000	9900.0	0.0	0.0	1.0000	0.0000	1	-360.0	360.0;
	41	42	0.207000	0.352000	0.000000	9900.0	0.0	0.0	1.0000	0.0000	1	-360.0	360.0;
	41	43	0.000000	0.412000	0.000000	9900.0	0.0	0.0	1.0000	0.0000	1	-360.0	360.0;
	38	44	0.028900	0.058500	0.002000	9900.0	0.0	0.0	1.0000	0.0000	1	-360.0	360.0;
	46	47	0.023000	0.068000	0.003200	9900.0	0.0	0.0	1.0000	0.0000	1	-360.0	360.0;
	47	48	0.018200	0.023300	0.000000	9900.0	0.0	0.0	1.0000	0.0000	1	-360.0	360.0;
	48	49	0.083400	0.129000	0.004800	9900.0	0.0	0.0	1.0000	0.0000	1	-360.0	360.0;
	49	50	0.080100	0.128000	0.000000	9900.0	0.0	0.0	1.0000	0.0000	1	-360.0	360.0;
	50	51	0.138600	0.220000	0.000000	9900.0	0.0	0.0	1.0000	0.0000	1	-360.0	360.0;
	29	52	0.144200	0.187000	0.000000	9900.0	0.0	0.0	1.0000	0.0000	1	-360.0	360.0;
	52	53	0.076200	0.098400	0.000000	9900.0	0.0	0.0	1.0000	0.0000	1	-360.0	360.0;
	53	54	0.187800	0.232000	0.000000	9900.0	0.0	0.0	1.0000	0.0000	1	-360.0	360.0;
	54	55	0.173200	0.226500	0.000000	9900.0	0.0	0.0	1.0000	0.0000	1	-360.0	360.0;
	44	45	0.062400	0.124200	0.004000	9900.0	0.0	0.0	1.0000	0.0000	1	-360.0	360.0;
	56	41	0.553000	0.549000	0.000000	9900.0	0.0	0.0	1.0000	0.0000	1	-360.0	360.0;
	56	42	0.212500	0.354000	0.000000	9900.0	0.0	0.0	1.0000	0.0000	1	-360.0	360.0;
	57	56	0.174000	0.260000	0.000000	9900.0	0.0	0.0	1.0000	0.0000	1	-360.0	360.0;
	38	49	0.115000	0.177000	0.003000	9900.0	0.0	0.0	1.0000	0.0000	1	-360.0	360.0;
	38	48	0.031200	0.048200	0.000000	9900.0	0.0	0.0	1.0000	0.0000	1	-360.0	360.0;
	18	4	0.000000	0.555000	-0.000000	9900.0	0.0	0.0	0.9700	0.0000	1	-360.0	360.0;
	18	4	0.000000	0.430000	-0.000000	9900.0	0.0	0.0	0.9780	0.0000	1	-360.0	360.0;
	20	21	0.000000	0.776700	-0.000000	9900.0	0.0	0.0	1.0430	0.0000	1	-360.0	360.0;
	25	24	0.000000	1.182000	-0.000000	9900.0	0.0	0.0	1.0000	0.0000	1	-360.0	360.0;
	25	24	0.000000	1.230000	-0.000000	9900.0	0.0	0.0	1.0000	0.0000	1	-360.0	360.0;
	26	24	0.000000	0.047300	-0.000000	9900.0	0.0	0.0	1.0430	0.0000	1	-360.0	360.0;
	29	7	0.000000	0.064800	-0.000000	9900.0	0.0	0.0	0.9670	0.0000	1	-360.0	360.0;
	32	34	0.000000	0.953000	-0.000000	9900.0	0.0	0.0	0.9750	0.0000	1	-360.0	360.0;
	41	11	0.000000	0.749000	-0.000000	9900.0	0.0	0.0	0.9550	0.0000	1	-360.0	360.0;
	45	15	0.000000	0.104200	-0.000000	9900.0	0.0	0.0	0.9550	0.0000	1	-360.0	360.0;
	46	14	0.000000	0.073500	-0.000000	9900.0	0.0	0.0	0.9000	0.0000	1	-360.0	360.0;
	51	10	0.000000	0.071200	-0.000000	9900.0	0.0	0.0	0.9300	0.0000	1	-360.0	360.0;
	49	13	0.000000	0.191000	-0.000000	9900.0	0.0	0.0	0.8950	0.0000	1	-360.0	360.0;
	43	11	0.000000	0.153000	-0.000000	9900.0	0.0	0.0	0.9580	0.0000	1	-360.0	360.0;
	56	40	0.000000	1.195000	-0.000000	9900.0	0.0	0.0	0.9580	0.0000	1	-360.0	360.0;
	57	39	0.000000	1.355000	-0.000000	9900.0	0.0	0.0	0.9800	0.0000	1	-360.0	360.0;
	55	9	0.000000	0.120500	-0.000000	9900.0	0.0	0.0	0.9400	0.0000	1	-360.0	360.0;
];
